
 OpenBabel06102418263D

 70 74  0  0  0  0  0  0  0  0999 V2000
    2.9017    0.2444    1.0147 O   0  0  0  0  0  0  0  0  0  0  0  0
    2.3914   -0.1655   -0.0200 C   0  0  0  0  0  0  0  0  0  0  0  0
    1.0200    0.2820   -0.4138 C   0  0  0  0  0  0  0  0  0  0  0  0
    0.1646    0.7534    0.5948 C   0  0  0  0  0  0  0  0  0  0  0  0
   -1.1166    1.2504    0.2934 C   0  0  0  0  0  0  0  0  0  0  0  0
   -1.9794    1.7154    1.2510 O   0  0  0  0  0  0  0  0  0  0  0  0
   -1.5718    1.6647    2.6115 C   0  0  0  0  0  0  0  0  0  0  0  0
   -1.5388    1.2785   -1.0475 C   0  0  0  0  0  0  0  0  0  0  0  0
   -2.7280    1.7216   -1.5684 O   0  0  0  0  0  0  0  0  0  0  0  0
   -3.6682    2.3511   -0.7103 C   0  0  0  0  0  0  0  0  0  0  0  0
   -0.6759    0.7996   -2.0477 C   0  0  0  0  0  0  0  0  0  0  0  0
    0.5933    0.3083   -1.7406 C   0  0  0  0  0  0  0  0  0  0  0  0
    3.1008   -1.1277   -0.9061 C   0  0  0  0  0  0  0  0  0  0  0  0
    4.4444   -1.2130   -0.8919 C   0  0  0  0  0  0  0  0  0  0  0  0
    5.2372   -2.0642   -1.8073 C   0  0  0  0  0  0  0  0  0  0  0  0
    4.7104   -2.4876   -3.0347 C   0  0  0  0  0  0  0  0  0  0  0  0
    5.4726   -3.2459   -3.9194 C   0  0  0  0  0  0  0  0  0  0  0  0
    6.7891   -3.5584   -3.6024 C   0  0  0  0  0  0  0  0  0  0  0  0
    7.3630   -3.1399   -2.3952 C   0  0  0  0  0  0  0  0  0  0  0  0
    8.7338   -3.4680   -2.1217 N   0  0  0  0  0  0  0  0  0  0  0  0
    9.1676   -4.8265   -2.1707 C   0  0  0  0  0  0  0  0  0  0  0  0
    8.1912   -5.7222   -2.1728 N   0  0  0  0  0  0  0  0  0  0  0  0
    8.4030   -6.8723   -1.5358 C   0  0  0  0  0  0  0  0  0  0  0  0
    7.1429   -7.3865   -0.9785 C   0  0  0  0  0  0  0  0  0  0  0  0
    5.9143   -7.0965   -1.6092 C   0  0  0  0  0  0  0  0  0  0  0  0
    4.6908   -7.3168   -0.9755 C   0  0  0  0  0  0  0  0  0  0  0  0
    4.6546   -7.8452    0.3157 C   0  0  0  0  0  0  0  0  0  0  0  0
    3.4733   -8.0508    0.9773 O   0  0  0  0  0  0  0  0  0  0  0  0
    2.3974   -7.1737    0.6611 C   0  0  0  0  0  0  0  0  0  0  0  0
    5.8652   -8.1975    0.9432 C   0  0  0  0  0  0  0  0  0  0  0  0
    6.0555   -8.7235    2.1939 O   0  0  0  0  0  0  0  0  0  0  0  0
    4.9215   -9.1747    2.9133 C   0  0  0  0  0  0  0  0  0  0  0  0
    7.0893   -7.9566    0.2937 C   0  0  0  0  0  0  0  0  0  0  0  0
    9.6077   -7.2858   -1.1030 N   0  0  0  0  0  0  0  0  0  0  0  0
   10.6518   -6.4794   -1.3804 C   0  0  0  0  0  0  0  0  0  0  0  0
   10.4885   -5.1977   -1.9293 C   0  0  0  0  0  0  0  0  0  0  0  0
   11.6152   -4.3834   -2.1988 C   0  0  0  0  0  0  0  0  0  0  0  0
   12.8993   -4.8435   -1.9163 C   0  0  0  0  0  0  0  0  0  0  0  0
   13.0582   -6.0882   -1.3204 C   0  0  0  0  0  0  0  0  0  0  0  0
   11.9345   -6.8874   -1.0507 C   0  0  0  0  0  0  0  0  0  0  0  0
    6.5759   -2.3903   -1.4974 C   0  0  0  0  0  0  0  0  0  0  0  0
    0.5301    0.7283    1.6181 H   0  0  0  0  0  0  0  0  0  0  0  0
   -2.3818    2.0829    3.2165 H   0  0  0  0  0  0  0  0  0  0  0  0
   -0.6813    2.2783    2.7815 H   0  0  0  0  0  0  0  0  0  0  0  0
   -1.4140    0.6308    2.9352 H   0  0  0  0  0  0  0  0  0  0  0  0
   -4.5181    2.6656   -1.3247 H   0  0  0  0  0  0  0  0  0  0  0  0
   -3.2501    3.2529   -0.2515 H   0  0  0  0  0  0  0  0  0  0  0  0
   -4.0573    1.6502    0.0345 H   0  0  0  0  0  0  0  0  0  0  0  0
   -1.0025    0.8299   -3.0860 H   0  0  0  0  0  0  0  0  0  0  0  0
    1.2384   -0.0103   -2.5592 H   0  0  0  0  0  0  0  0  0  0  0  0
    2.4846   -1.7331   -1.5568 H   0  0  0  0  0  0  0  0  0  0  0  0
    5.0150   -0.5980   -0.1992 H   0  0  0  0  0  0  0  0  0  0  0  0
    3.7027   -2.2229   -3.3412 H   0  0  0  0  0  0  0  0  0  0  0  0
    5.0488   -3.5813   -4.8595 H   0  0  0  0  0  0  0  0  0  0  0  0
    7.3729   -4.1576   -4.2978 H   0  0  0  0  0  0  0  0  0  0  0  0
    8.9486   -3.1729   -1.1682 H   0  0  0  0  0  0  0  0  0  0  0  0
    5.9079   -6.6123   -2.5877 H   0  0  0  0  0  0  0  0  0  0  0  0
    3.7886   -7.0417   -1.5120 H   0  0  0  0  0  0  0  0  0  0  0  0
    1.6371   -7.2933    1.4393 H   0  0  0  0  0  0  0  0  0  0  0  0
    1.9372   -7.4467   -0.2936 H   0  0  0  0  0  0  0  0  0  0  0  0
    2.7132   -6.1247    0.6624 H   0  0  0  0  0  0  0  0  0  0  0  0
    5.2865   -9.7279    3.7830 H   0  0  0  0  0  0  0  0  0  0  0  0
    4.3158   -9.8690    2.3230 H   0  0  0  0  0  0  0  0  0  0  0  0
    4.3370   -8.3272    3.2848 H   0  0  0  0  0  0  0  0  0  0  0  0
    8.0158   -8.1531    0.8305 H   0  0  0  0  0  0  0  0  0  0  0  0
   11.4881   -3.4184   -2.6861 H   0  0  0  0  0  0  0  0  0  0  0  0
   13.7691   -4.2385   -2.1638 H   0  0  0  0  0  0  0  0  0  0  0  0
   14.0513   -6.4502   -1.0646 H   0  0  0  0  0  0  0  0  0  0  0  0
   12.0762   -7.8490   -0.5704 H   0  0  0  0  0  0  0  0  0  0  0  0
    6.9924   -2.0779   -0.5434 H   0  0  0  0  0  0  0  0  0  0  0  0
  1  2  2  0  0  0  0
  2  3  1  0  0  0  0
  2 13  1  0  0  0  0
  3  4  2  0  0  0  0
  3 12  1  0  0  0  0
  4  5  1  0  0  0  0
  4 42  1  0  0  0  0
  5  6  1  0  0  0  0
  5  8  2  0  0  0  0
  6  7  1  0  0  0  0
  7 43  1  0  0  0  0
  7 44  1  0  0  0  0
  7 45  1  0  0  0  0
  8  9  1  0  0  0  0
  8 11  1  0  0  0  0
  9 10  1  0  0  0  0
 10 46  1  0  0  0  0
 10 47  1  0  0  0  0
 10 48  1  0  0  0  0
 11 12  2  0  0  0  0
 11 49  1  0  0  0  0
 12 50  1  0  0  0  0
 13 14  2  0  0  0  0
 13 51  1  0  0  0  0
 14 15  1  0  0  0  0
 14 52  1  0  0  0  0
 15 16  2  0  0  0  0
 15 41  1  0  0  0  0
 16 17  1  0  0  0  0
 16 53  1  0  0  0  0
 17 18  2  0  0  0  0
 17 54  1  0  0  0  0
 18 19  1  0  0  0  0
 18 55  1  0  0  0  0
 19 20  1  0  0  0  0
 19 41  2  0  0  0  0
 20 21  1  0  0  0  0
 20 56  1  0  0  0  0
 21 22  2  0  0  0  0
 21 36  1  0  0  0  0
 22 23  1  0  0  0  0
 23 24  1  0  0  0  0
 23 34  2  0  0  0  0
 24 25  2  0  0  0  0
 24 33  1  0  0  0  0
 25 26  1  0  0  0  0
 25 57  1  0  0  0  0
 26 27  2  0  0  0  0
 26 58  1  0  0  0  0
 27 28  1  0  0  0  0
 27 30  1  0  0  0  0
 28 29  1  0  0  0  0
 29 59  1  0  0  0  0
 29 60  1  0  0  0  0
 29 61  1  0  0  0  0
 30 31  1  0  0  0  0
 30 33  2  0  0  0  0
 31 32  1  0  0  0  0
 32 62  1  0  0  0  0
 32 63  1  0  0  0  0
 32 64  1  0  0  0  0
 33 65  1  0  0  0  0
 34 35  1  0  0  0  0
 35 36  2  0  0  0  0
 35 40  1  0  0  0  0
 36 37  1  0  0  0  0
 37 38  2  0  0  0  0
 37 66  1  0  0  0  0
 38 39  1  0  0  0  0
 38 67  1  0  0  0  0
 39 40  2  0  0  0  0
 39 68  1  0  0  0  0
 40 69  1  0  0  0  0
 41 70  1  0  0  0  0
M  END
$$$$
